WIDTH=8;
DEPTH=2048;

ADDRESS_RADIX=HEX;
DATA_RADIX=HEX;

CONTENT BEGIN 
   0  :    00;
     1  :    8c;
     2  :    00;
     3  :    0c;
     4  :    00;
     5  :    14;
     6  :    00;
     7  :    16;
     8  :    00;
     9  :    18;
     A  :    ff;
     B  :    00;
     C  :    02;
     D  :    00;
     E  :    00;
     F  :    00;
     10  :    ff;
     11  :    ff;
     12  :    00;
     13  :    ff;
     14  :    ff;
     15  :    ff;
     16  :    ff;
     17  :    ff;
     18  :    00;
     19  :    00;
     1A  :    00;
     1B  :    11;
     1C  :    10;
     1D  :    10;
     1E  :    10;
     1F  :    18;
     20  :    ff;
     21  :    ff;
     22  :    00;
     23  :    00;
     24  :    20;
     25  :    00;
     26  :    ff;
     27  :    ff;
     28  :    ff;
     29  :    ff;
     2A  :    ff;
     2B  :    00;
     2C  :    00;
     2D  :    00;
     2E  :    00;
     2F  :    80;
     30  :    00;
     31  :    00;
     32  :    00;
     33  :    00;
     34  :    00;
     35  :    80;
     36  :    80;
     37  :    00;
     38  :    00;
     39  :    00;
     3A  :    00;
     3B  :    ff;
     3C  :    80;
     3D  :    00;
     3E  :    00;
     3F  :    00;
     40  :    80;
     41  :    00;
     42  :    00;
     43  :    00;
     44  :    00;
     45  :    00;
     46  :    80;
     47  :    80;
     48  :    00;
     49  :    00;
     4A  :    00;
     4B  :    00;
     4C  :    ff;
     4D  :    80;
     4E  :    00;
     4F  :    00;
     50  :    00;
     51  :    00;
     52  :    80;
     53  :    00;
     54  :    00;
     55  :    00;
     56  :    00;
     57  :    00;
     58  :    00;
     59  :    00;
     5A  :    00;
     5B  :    00;
     5C  :    00;
     5D  :    ff;
     5E  :    18;
     5F  :    00;
     60  :    00;
     61  :    80;
     62  :    00;
     63  :    00;
     64  :    00;
     65  :    10;
     66  :    00;
     67  :    00;
     68  :    ff;
     69  :    00;
     6A  :    00;
     6B  :    80;
     6C  :    00;
     6D  :    00;
     6E  :    00;
     6F  :    00;
     70  :    00;
     71  :    00;
     72  :    ff;
     73  :    00;
     74  :    00;
     75  :    00;
     76  :    00;
     77  :    00;
     78  :    ff;
     79  :    00;
     7A  :    00;
     7B  :    00;
     7C  :    00;
     7D  :    00;
     7E  :    00;
     7F  :    00;
     80  :    00;
     81  :    00;
     82  :    00;
     83  :    00;
     84  :    a1;
     85  :    ff;
     86  :    00;
     87  :    ff;
     88  :    00;
     89  :    00;
     8A  :    00;
     8B  :    00;
     8C  :    03;
     8D  :    00;
     8E  :    00;
     8F  :    00;
     90  :    03;
     91  :    00;
     92  :    00;
     93  :    00;
     94  :    03;
     95  :    00;
     96  :    00;
     97  :    00;
     98  :    00;
     99  :    00;
     9A  :    ff;
     9B  :    00;
     9C  :    00;
     9D  :    00;
     9E  :    80;
     9F  :    00;
     A0  :    00;
     A1  :    80;
     A2  :    00;
     A3  :    00;
     A4  :    ff;
     A5  :    10;
     A6  :    00;
     A7  :    00;
     A8  :    ff;
     A9  :    10;
     AA  :    00;
     AB  :    00;
     AC  :    ff;
     AD  :    10;
     AE  :    00;
     AF  :    00;
     B0  :    03;
     B1  :    00;
     B2  :    00;
     B3  :    00;
     B4  :    00;
     B5  :    00;
     B6  :    00;
     B7  :    00;
     B8  :    00;
     B9  :    ff;
     BA  :    00;
     BB  :    00;
     BC  :    00;
     BD  :    80;
     BE  :    00;
     BF  :    00;
     C0  :    80;
     C1  :    00;
     C2  :    00;
     C3  :    00;
     C4  :    00;
     C5  :    00;
     C6  :    00;
     C7  :    ff;
     C8  :    10;
     C9  :    00;
     CA  :    00;
     CB  :    ff;
     CC  :    10;
     CD  :    00;
     CE  :    00;
     CF  :    03;
     D0  :    00;
     D1  :    00;
     D2  :    00;
     D3  :    00;
     D4  :    00;
     D5  :    00;
     D6  :    00;
     D7  :    00;
     D8  :    ff;
     D9  :    00;
     DA  :    00;
     DB  :    00;
     DC  :    00;
     DD  :    00;
     DE  :    00;
     DF  :    00;
     E0  :    00;
     E1  :    00;
     E2  :    00;
     E3  :    00;
     E4  :    00;
     E5  :    00;
     E6  :    ff;
     E7  :    00;
     E8  :    00;
     E9  :    80;
     EA  :    00;
     EB  :    00;
     EC  :    00;
     ED  :    00;
     EE  :    00;
     EF  :    20;
     F0  :    00;
     F1  :    00;
     F2  :    00;
     F3  :    00;
     F4  :    ff;
     F5  :    00;
     F6  :    00;
     F7  :    80;
     F8  :    00;
     F9  :    00;
     FA  :    00;
     FB  :    00;
     FC  :    00;
     FD  :    00;
     FE  :    20;
     FF  :    00;
     100  :    00;
     101  :    00;
     102  :    00;
     103  :    ff;
     104  :    00;
     105  :    00;
     106  :    00;
     107  :    00;
     108  :    00;
     109  :    ff;
     10A  :    00;
     10B  :    00;
     10C  :    00;
     10D  :    80;
     10E  :    00;
     10F  :    00;
     110  :    0b;
     111  :    00;
     112  :    80;
     113  :    00;
     114  :    00;
     115  :    00;
     116  :    00;
     117  :    00;
     118  :    00;
     119  :    00;
     11A  :    00;
     11B  :    00;
     11C  :    ff;
     11D  :    00;
     11E  :    80;
     11F  :    00;
     120  :    00;
     121  :    00;
     122  :    00;
     123  :    00;
     124  :    00;
     125  :    ff;
     126  :    00;
     127  :    ff;
     128  :    00;
     129  :    80;
     12A  :    00;
     12B  :    00;
     12C  :    00;
     12D  :    01;
     12E  :    00;
     12F  :    80;
     130  :    00;
     131  :    01;
     132  :    00;
     133  :    00;
     134  :    00;
     135  :    00;
     136  :    00;
     137  :    80;
     138  :    00;
     139  :    00;
     13A  :    fe;
     13B  :    10;
     13C  :    00;
     13D  :    00;
     13E  :    ff;
     13F  :    10;
     140  :    00;
     141  :    00;
     142  :    80;
     143  :    00;
     144  :    00;
     145  :    00;
     146  :    00;
     147  :    00;
     148  :    00;
     149  :    00;
     14A  :    00;
     14B  :    00;
     14C  :    00;
     14D  :    ff;
     14E  :    10;
     14F  :    00;
     150  :    00;
     151  :    00;
     152  :    10;
     153  :    00;
     154  :    00;
     155  :    80;
     156  :    00;
     157  :    00;
     158  :    00;
     159  :    00;
     15A  :    80;
     15B  :    00;
     15C  :    00;
     15D  :    00;
     15E  :    00;
     15F  :    00;
     160  :    00;
     161  :    80;
     162  :    00;
     163  :    00;
     164  :    00;
     165  :    10;
     166  :    00;
     167  :    00;
     168  :    00;
     169  :    80;
     16A  :    00;
     16B  :    00;
     16C  :    ff;
     16D  :    18;
     16E  :    00;
     16F  :    00;
     170  :    80;
     171  :    00;
     172  :    00;
     173  :    00;
     174  :    00;
     175  :    00;
     176  :    00;
     177  :    80;
     178  :    00;
     179  :    00;
     17A  :    ff;
     17B  :    18;
     17C  :    00;
     17D  :    00;
     17E  :    80;
     17F  :    00;
     180  :    00;
     181  :    00;
     182  :    00;
     183  :    00;
     184  :    00;
     185  :    00;
     186  :    80;
     187  :    00;
     188  :    00;
     189  :    00;
     18A  :    ff;
     18B  :    00;
     18C  :    00;
     18D  :    0b;
     18E  :    00;
     18F  :    00;
     190  :    00;
     191  :    00;
     192  :    00;
     193  :    00;
     194  :    00;
     195  :    00;
     196  :    00;
     197  :    00;
     198  :    00;
     199  :    00;
     19A  :    00;
     19B  :    00;
     19C  :    00;
     19D  :    00;
     19E  :    00;
     19F  :    00;
     1A0  :    00;
     1A1  :    00;
     1A2  :    00;
     1A3  :    00;
     1A4  :    01;
     1A5  :    00;
     1A6  :    02;
     1A7  :    00;
     1A8  :    00;
     1A9  :    00;
     1AA  :    00;
     1AB  :    00;
     1AC  :    ff;
     1AD  :    00;
     1AE  :    00;
     1AF  :    00;
     1B0  :    00;
     1B1  :    00;
     1B2  :    00;
     1B3  :    00;
     1B4  :    00;
     1B5  :    a0;
     1B6  :    80;
     1B7  :    00;
     1B8  :    10;
     1B9  :    00;
     1BA  :    12;
     1BB  :    00;
     1BC  :    0c;
     1BD  :    00;
     1BE  :    0e;
     1BF  :    18;
     1C0  :    10;
     1C1  :    00;
     1C2  :    10;
     1C3  :    00;
     1C4  :    10;
     1C5  :    00;
     1C6  :    18;
     1C7  :    00;
     1C8  :    01;
     1C9  :    ff;
     1CA  :    00;
     1CB  :    00;
     1CC  :    00;
     1CD  :    12;
     1CE  :    00;
     1CF  :    03;
     1D0  :    0c;
     1D1  :    00;
     1D2  :    00;
     1D3  :    00;
     1D4  :    12;
     1D5  :    10;
     1D6  :    0c;
     1D7  :    00;
     1D8  :    10;
     1D9  :    0e;
     1DA  :    00;
     1DB  :    10;
     1DC  :    20;
     1DD  :    00;
     1DE  :    02;
     1DF  :    30;
     1E0  :    20;
     1E1  :    00;
     1E2  :    02;
     1E3  :    30;
     1E4  :    20;
     1E5  :    00;
     1E6  :    02;
     1E7  :    30;
     1E8  :    20;
     1E9  :    28;
     1EA  :    02;
     1EB  :    30;
     1EC  :    28;
     1ED  :    ff;
     1EE  :    ff;
     1EF  :    20;
     1F0  :    02;
     1F1  :    30;
     1F2  :    a0;
     1F3  :    00;
     1F4  :    00;
     1F5  :    20;
     1F6  :    28;
     1F7  :    02;
     1F8  :    30;
     1F9  :    00;
     1FA  :    00;
     1FB  :    0e;
     1FC  :    02;
     1FD  :    30;
     1FE  :    00;
     1FF  :    ff;
     200  :    20;
     201  :    00;
     202  :    00;
     203  :    00;
     204  :    00;
     205  :    00;
     206  :    00;
     207  :    00;
     208  :    00;
     209  :    00;
     20A  :    00;
     20B  :    40;
     20C  :    01;
     20D  :    18;
     20E  :    48;
     20F  :    10;
     210  :    18;
     211  :    00;
     212  :    00;
     213  :    00;
     214  :    10;
     215  :    18;
     216  :    00;
     217  :    ff;
     218  :    27;
     219  :    00;
     21A  :    40;
     21B  :    00;
     21C  :    d8;
     21D  :    00;
     21E  :    ff;
     21F  :    ff;
     220  :    18;
     221  :    00;
     222  :    00;
     223  :    48;
     224  :    20;
     225  :    01;
     226  :    18;
     227  :    10;
     228  :    00;
     229  :    00;
     22A  :    10;
     22B  :    ff;
     22C  :    10;
     22D  :    00;
     22E  :    00;
     22F  :    ff;
     230  :    10;
     231  :    00;
     232  :    10;
     233  :    18;
     234  :    10;
     235  :    00;
     236  :    00;
     237  :    20;
     238  :    20;
     239  :    10;
     23A  :    d8;
     23B  :    00;
     23C  :    00;
     23D  :    10;
     23E  :    00;
     23F  :    00;
     240  :    ff;
     241  :    ff;
     242  :    18;
     243  :    00;
     244  :    00;
     245  :    58;
     246  :    ff;
     247  :    00;
     248  :    40;
     249  :    38;
     24A  :    28;
     24B  :    10;
     24C  :    00;
     24D  :    28;
     24E  :    18;
     24F  :    00;
     250  :    00;
     251  :    00;
     252  :    20;
     253  :    00;
     254  :    00;
     255  :    00;
     256  :    40;
     257  :    18;
     258  :    10;
     259  :    10;
     25A  :    10;
     25B  :    10;
     25C  :    11;
     25D  :    10;
     25E  :    41;
     25F  :    00;
     260  :    10;
     261  :    50;
     262  :    00;
     263  :    01;
     264  :    ff;
     265  :    00;
     266  :    00;
     267  :    10;
     268  :    ff;
     269  :    00;
     26A  :    00;
     26B  :    00;
     26C  :    00;
     26D  :    00;
     26E  :    00;
     26F  :    00;
     270  :    0b;
     271  :    00;
     272  :    00;
     273  :    0b;
     274  :    88;
     275  :    00;
     276  :    10;
     277  :    80;
     278  :    91;
     279  :    10;
     27A  :    10;
     27B  :    10;
     27C  :    00;
     27D  :    02;
     27E  :    00;
     27F  :    00;
     280  :    ff;
     281  :    10;
     282  :    00;
     283  :    00;
     284  :    ff;
     285  :    80;
     286  :    00;
     287  :    00;
     288  :    00;
     289  :    00;
     28A  :    00;
     28B  :    00;
     28C  :    00;
     28D  :    ff;
     28E  :    00;
     28F  :    00;
     290  :    80;
     291  :    ff;
     292  :    10;
     293  :    4d;
     294  :    00;
     295  :    18;
     296  :    21;
     297  :    ff;
     298  :    11;
     299  :    10;
     29A  :    10;
     29B  :    10;
     29C  :    10;
     29D  :    80;
     29E  :    ff;
     29F  :    00;
     2A0  :    00;
     2A1  :    00;
     2A2  :    51;
     2A3  :    85;
     2A4  :    00;
     2A5  :    18;
     2A6  :    21;
     2A7  :    ff;
     2A8  :    10;
     2A9  :    10;
     2AA  :    10;
     2AB  :    10;
     2AC  :    10;
     2AD  :    80;
     2AE  :    ff;
     2AF  :    00;
     2B0  :    00;
     2B1  :    00;
     2B2  :    cc;
     2B3  :    cc;
     2B4  :    00;
     2B5  :    18;
     2B6  :    20;
     2B7  :    ff;
     2B8  :    10;
     2B9  :    10;
     2BA  :    10;
     2BB  :    80;
     2BC  :    ff;
     2BD  :    00;
     2BE  :    00;
     2BF  :    00;
     2C0  :    00;
     2C1  :    00;
     2C2  :    00;
     2C3  :    20;
     2C4  :    00;
     2C5  :    00;
     2C6  :    00;
     2C7  :    00;
     2C8  :    ff;
     2C9  :    00;
     2CA  :    00;
     2CB  :    80;
     2CC  :    00;
     2CD  :    00;
     2CE  :    0b;
     2CF  :    00;
     2D0  :    00;
     2D1  :    0b;
     2D2  :    01;
     2D3  :    00;
     2D4  :    02;
     2D5  :    00;
     2D6  :    20;
     2D7  :    00;
     2D8  :    00;
     2D9  :    01;
     2DA  :    80;
     2DB  :    01;
     2DC  :    00;
     2DD  :    ff;
     2DE  :    00;
     2DF  :    ff;
     2E0  :    00;
     2E1  :    00;
     2E2  :    00;
     2E3  :    00;
     2E4  :    00;
     2E5  :    00;
     2E6  :    00;
     2E7  :    69;
     2E8  :    73;
     2E9  :    50;
     2EA  :    39;
     2EB  :    4f;
     2EC  :    41;
     2ED  :    0a;
     2EE  :    6c;
     2EF  :    61;
     2F0  :    67;
     2F1  :    2e;
     2F2  :    00;
     2F3  :    6c;
     2F4  :    61;
     2F5  :    67;
     2F6  :    4e;
     2F7  :    00;
     2F8  :    6e;
     2F9  :    6e;
     2FA  :    69;
     2FB  :    33;
     2FC  :    00;
     2FD  :    6c;
     2FE  :    43;
     2FF  :    57;
     300  :    64;
     301  :    68;
     302  :    69;
     303  :    4d;
     304  :    37;
     305  :    2e;
     306  :    00;
  END;