WIDTH=8;
DEPTH=2048;

ADDRESS_RADIX=HEX;
DATA_RADIX=HEX;

CONTENT BEGIN 
   0  :    00;
     1  :    8b;
     2  :    00;
     3  :    0b;
     4  :    00;
     5  :    1d;
     6  :    00;
     7  :    1f;
     8  :    00;
     9  :    18;
     A  :    ff;
     B  :    00;
     C  :    02;
     D  :    00;
     E  :    00;
     F  :    00;
     10  :    ff;
     11  :    ff;
     12  :    00;
     13  :    ff;
     14  :    ff;
     15  :    ff;
     16  :    ff;
     17  :    ff;
     18  :    00;
     19  :    00;
     1A  :    00;
     1B  :    11;
     1C  :    10;
     1D  :    10;
     1E  :    10;
     1F  :    18;
     20  :    ff;
     21  :    ff;
     22  :    00;
     23  :    00;
     24  :    20;
     25  :    00;
     26  :    ff;
     27  :    ff;
     28  :    ff;
     29  :    ff;
     2A  :    ff;
     2B  :    00;
     2C  :    00;
     2D  :    00;
     2E  :    00;
     2F  :    80;
     30  :    00;
     31  :    00;
     32  :    00;
     33  :    00;
     34  :    00;
     35  :    80;
     36  :    80;
     37  :    00;
     38  :    00;
     39  :    00;
     3A  :    00;
     3B  :    ff;
     3C  :    80;
     3D  :    00;
     3E  :    00;
     3F  :    00;
     40  :    80;
     41  :    00;
     42  :    00;
     43  :    00;
     44  :    00;
     45  :    00;
     46  :    80;
     47  :    80;
     48  :    00;
     49  :    00;
     4A  :    00;
     4B  :    00;
     4C  :    ff;
     4D  :    80;
     4E  :    00;
     4F  :    00;
     50  :    00;
     51  :    00;
     52  :    80;
     53  :    00;
     54  :    00;
     55  :    00;
     56  :    00;
     57  :    00;
     58  :    00;
     59  :    00;
     5A  :    00;
     5B  :    00;
     5C  :    00;
     5D  :    ff;
     5E  :    18;
     5F  :    00;
     60  :    00;
     61  :    80;
     62  :    00;
     63  :    00;
     64  :    00;
     65  :    10;
     66  :    00;
     67  :    00;
     68  :    ff;
     69  :    00;
     6A  :    00;
     6B  :    00;
     6C  :    80;
     6D  :    00;
     6E  :    00;
     6F  :    00;
     70  :    00;
     71  :    00;
     72  :    00;
     73  :    00;
     74  :    00;
     75  :    00;
     76  :    00;
     77  :    00;
     78  :    00;
     79  :    ff;
     7A  :    00;
     7B  :    00;
     7C  :    00;
     7D  :    00;
     7E  :    00;
     7F  :    00;
     80  :    ff;
     81  :    00;
     82  :    00;
     83  :    00;
     84  :    00;
     85  :    00;
     86  :    00;
     87  :    00;
     88  :    00;
     89  :    00;
     8A  :    00;
     8B  :    00;
     8C  :    a1;
     8D  :    ff;
     8E  :    00;
     8F  :    ff;
     90  :    00;
     91  :    00;
     92  :    00;
     93  :    00;
     94  :    03;
     95  :    00;
     96  :    00;
     97  :    00;
     98  :    03;
     99  :    00;
     9A  :    00;
     9B  :    00;
     9C  :    03;
     9D  :    00;
     9E  :    00;
     9F  :    00;
     A0  :    00;
     A1  :    00;
     A2  :    ff;
     A3  :    00;
     A4  :    00;
     A5  :    00;
     A6  :    80;
     A7  :    00;
     A8  :    00;
     A9  :    80;
     AA  :    00;
     AB  :    00;
     AC  :    ff;
     AD  :    10;
     AE  :    00;
     AF  :    00;
     B0  :    ff;
     B1  :    10;
     B2  :    00;
     B3  :    00;
     B4  :    ff;
     B5  :    10;
     B6  :    00;
     B7  :    00;
     B8  :    03;
     B9  :    00;
     BA  :    00;
     BB  :    00;
     BC  :    00;
     BD  :    00;
     BE  :    00;
     BF  :    00;
     C0  :    00;
     C1  :    ff;
     C2  :    00;
     C3  :    00;
     C4  :    00;
     C5  :    80;
     C6  :    00;
     C7  :    00;
     C8  :    80;
     C9  :    00;
     CA  :    00;
     CB  :    00;
     CC  :    00;
     CD  :    00;
     CE  :    00;
     CF  :    ff;
     D0  :    10;
     D1  :    00;
     D2  :    00;
     D3  :    ff;
     D4  :    10;
     D5  :    00;
     D6  :    00;
     D7  :    03;
     D8  :    00;
     D9  :    00;
     DA  :    00;
     DB  :    00;
     DC  :    00;
     DD  :    00;
     DE  :    00;
     DF  :    00;
     E0  :    ff;
     E1  :    00;
     E2  :    00;
     E3  :    00;
     E4  :    00;
     E5  :    00;
     E6  :    00;
     E7  :    00;
     E8  :    00;
     E9  :    00;
     EA  :    00;
     EB  :    00;
     EC  :    00;
     ED  :    00;
     EE  :    ff;
     EF  :    00;
     F0  :    00;
     F1  :    80;
     F2  :    00;
     F3  :    00;
     F4  :    00;
     F5  :    00;
     F6  :    00;
     F7  :    20;
     F8  :    00;
     F9  :    00;
     FA  :    00;
     FB  :    00;
     FC  :    ff;
     FD  :    00;
     FE  :    00;
     FF  :    80;
     100  :    00;
     101  :    00;
     102  :    00;
     103  :    00;
     104  :    00;
     105  :    00;
     106  :    20;
     107  :    00;
     108  :    00;
     109  :    00;
     10A  :    00;
     10B  :    ff;
     10C  :    00;
     10D  :    00;
     10E  :    00;
     10F  :    00;
     110  :    00;
     111  :    ff;
     112  :    00;
     113  :    00;
     114  :    00;
     115  :    80;
     116  :    00;
     117  :    00;
     118  :    0b;
     119  :    00;
     11A  :    80;
     11B  :    00;
     11C  :    00;
     11D  :    00;
     11E  :    00;
     11F  :    00;
     120  :    ff;
     121  :    00;
     122  :    00;
     123  :    00;
     124  :    80;
     125  :    00;
     126  :    00;
     127  :    00;
     128  :    00;
     129  :    00;
     12A  :    00;
     12B  :    ff;
     12C  :    00;
     12D  :    ff;
     12E  :    00;
     12F  :    80;
     130  :    00;
     131  :    00;
     132  :    00;
     133  :    01;
     134  :    00;
     135  :    80;
     136  :    00;
     137  :    01;
     138  :    00;
     139  :    00;
     13A  :    00;
     13B  :    00;
     13C  :    00;
     13D  :    80;
     13E  :    00;
     13F  :    00;
     140  :    fe;
     141  :    10;
     142  :    00;
     143  :    00;
     144  :    ff;
     145  :    10;
     146  :    00;
     147  :    00;
     148  :    80;
     149  :    00;
     14A  :    00;
     14B  :    00;
     14C  :    00;
     14D  :    00;
     14E  :    00;
     14F  :    00;
     150  :    00;
     151  :    00;
     152  :    00;
     153  :    ff;
     154  :    10;
     155  :    00;
     156  :    00;
     157  :    00;
     158  :    10;
     159  :    00;
     15A  :    00;
     15B  :    80;
     15C  :    00;
     15D  :    00;
     15E  :    00;
     15F  :    00;
     160  :    80;
     161  :    00;
     162  :    00;
     163  :    00;
     164  :    00;
     165  :    00;
     166  :    00;
     167  :    80;
     168  :    00;
     169  :    00;
     16A  :    00;
     16B  :    10;
     16C  :    00;
     16D  :    00;
     16E  :    00;
     16F  :    80;
     170  :    00;
     171  :    00;
     172  :    ff;
     173  :    18;
     174  :    00;
     175  :    00;
     176  :    80;
     177  :    00;
     178  :    00;
     179  :    00;
     17A  :    00;
     17B  :    00;
     17C  :    00;
     17D  :    80;
     17E  :    00;
     17F  :    00;
     180  :    ff;
     181  :    18;
     182  :    00;
     183  :    00;
     184  :    80;
     185  :    00;
     186  :    00;
     187  :    00;
     188  :    00;
     189  :    00;
     18A  :    00;
     18B  :    00;
     18C  :    80;
     18D  :    00;
     18E  :    00;
     18F  :    00;
     190  :    ff;
     191  :    00;
     192  :    00;
     193  :    00;
     194  :    0b;
     195  :    01;
     196  :    00;
     197  :    02;
     198  :    00;
     199  :    00;
     19A  :    00;
     19B  :    00;
     19C  :    00;
     19D  :    ff;
     19E  :    00;
     19F  :    00;
     1A0  :    00;
     1A1  :    00;
     1A2  :    00;
     1A3  :    00;
     1A4  :    00;
     1A5  :    00;
     1A6  :    a0;
     1A7  :    80;
     1A8  :    00;
     1A9  :    14;
     1AA  :    00;
     1AB  :    18;
     1AC  :    00;
     1AD  :    0b;
     1AE  :    00;
     1AF  :    10;
     1B0  :    18;
     1B1  :    10;
     1B2  :    00;
     1B3  :    10;
     1B4  :    00;
     1B5  :    10;
     1B6  :    00;
     1B7  :    18;
     1B8  :    00;
     1B9  :    02;
     1BA  :    ff;
     1BB  :    00;
     1BC  :    00;
     1BD  :    00;
     1BE  :    18;
     1BF  :    00;
     1C0  :    03;
     1C1  :    0b;
     1C2  :    00;
     1C3  :    00;
     1C4  :    00;
     1C5  :    18;
     1C6  :    10;
     1C7  :    0b;
     1C8  :    00;
     1C9  :    10;
     1CA  :    10;
     1CB  :    00;
     1CC  :    14;
     1CD  :    20;
     1CE  :    00;
     1CF  :    02;
     1D0  :    30;
     1D1  :    20;
     1D2  :    00;
     1D3  :    02;
     1D4  :    30;
     1D5  :    20;
     1D6  :    00;
     1D7  :    02;
     1D8  :    30;
     1D9  :    20;
     1DA  :    28;
     1DB  :    02;
     1DC  :    30;
     1DD  :    28;
     1DE  :    ff;
     1DF  :    ff;
     1E0  :    20;
     1E1  :    02;
     1E2  :    30;
     1E3  :    a0;
     1E4  :    00;
     1E5  :    00;
     1E6  :    20;
     1E7  :    28;
     1E8  :    01;
     1E9  :    30;
     1EA  :    00;
     1EB  :    00;
     1EC  :    10;
     1ED  :    02;
     1EE  :    30;
     1EF  :    00;
     1F0  :    ff;
     1F1  :    20;
     1F2  :    00;
     1F3  :    00;
     1F4  :    00;
     1F5  :    00;
     1F6  :    00;
     1F7  :    00;
     1F8  :    00;
     1F9  :    00;
     1FA  :    00;
     1FB  :    00;
     1FC  :    40;
     1FD  :    02;
     1FE  :    18;
     1FF  :    48;
     200  :    10;
     201  :    18;
     202  :    00;
     203  :    00;
     204  :    00;
     205  :    10;
     206  :    18;
     207  :    00;
     208  :    ff;
     209  :    27;
     20A  :    00;
     20B  :    40;
     20C  :    00;
     20D  :    d8;
     20E  :    00;
     20F  :    ff;
     210  :    ff;
     211  :    18;
     212  :    00;
     213  :    00;
     214  :    48;
     215  :    20;
     216  :    02;
     217  :    18;
     218  :    10;
     219  :    00;
     21A  :    00;
     21B  :    10;
     21C  :    ff;
     21D  :    10;
     21E  :    00;
     21F  :    00;
     220  :    ff;
     221  :    10;
     222  :    00;
     223  :    10;
     224  :    18;
     225  :    10;
     226  :    00;
     227  :    00;
     228  :    20;
     229  :    20;
     22A  :    10;
     22B  :    d8;
     22C  :    00;
     22D  :    00;
     22E  :    10;
     22F  :    00;
     230  :    00;
     231  :    ff;
     232  :    ff;
     233  :    18;
     234  :    00;
     235  :    00;
     236  :    58;
     237  :    ff;
     238  :    00;
     239  :    40;
     23A  :    38;
     23B  :    28;
     23C  :    10;
     23D  :    00;
     23E  :    28;
     23F  :    18;
     240  :    00;
     241  :    00;
     242  :    00;
     243  :    20;
     244  :    00;
     245  :    00;
     246  :    00;
     247  :    40;
     248  :    18;
     249  :    10;
     24A  :    10;
     24B  :    10;
     24C  :    10;
     24D  :    11;
     24E  :    10;
     24F  :    41;
     250  :    00;
     251  :    10;
     252  :    50;
     253  :    00;
     254  :    02;
     255  :    ff;
     256  :    00;
     257  :    00;
     258  :    10;
     259  :    ff;
     25A  :    00;
     25B  :    00;
     25C  :    00;
     25D  :    00;
     25E  :    00;
     25F  :    00;
     260  :    00;
     261  :    0b;
     262  :    00;
     263  :    00;
     264  :    0b;
     265  :    88;
     266  :    00;
     267  :    14;
     268  :    80;
     269  :    91;
     26A  :    10;
     26B  :    10;
     26C  :    10;
     26D  :    00;
     26E  :    02;
     26F  :    00;
     270  :    00;
     271  :    ff;
     272  :    10;
     273  :    00;
     274  :    00;
     275  :    ff;
     276  :    80;
     277  :    00;
     278  :    00;
     279  :    00;
     27A  :    00;
     27B  :    00;
     27C  :    00;
     27D  :    00;
     27E  :    ff;
     27F  :    00;
     280  :    00;
     281  :    80;
     282  :    ff;
     283  :    10;
     284  :    4d;
     285  :    00;
     286  :    18;
     287  :    21;
     288  :    ff;
     289  :    11;
     28A  :    10;
     28B  :    10;
     28C  :    10;
     28D  :    10;
     28E  :    80;
     28F  :    ff;
     290  :    00;
     291  :    00;
     292  :    00;
     293  :    51;
     294  :    85;
     295  :    00;
     296  :    18;
     297  :    21;
     298  :    ff;
     299  :    10;
     29A  :    10;
     29B  :    10;
     29C  :    10;
     29D  :    10;
     29E  :    80;
     29F  :    ff;
     2A0  :    00;
     2A1  :    00;
     2A2  :    00;
     2A3  :    cc;
     2A4  :    cc;
     2A5  :    00;
     2A6  :    18;
     2A7  :    20;
     2A8  :    ff;
     2A9  :    10;
     2AA  :    10;
     2AB  :    10;
     2AC  :    80;
     2AD  :    ff;
     2AE  :    00;
     2AF  :    00;
     2B0  :    00;
     2B1  :    00;
     2B2  :    00;
     2B3  :    00;
     2B4  :    20;
     2B5  :    00;
     2B6  :    00;
     2B7  :    00;
     2B8  :    00;
     2B9  :    ff;
     2BA  :    00;
     2BB  :    00;
     2BC  :    00;
     2BD  :    80;
     2BE  :    00;
     2BF  :    00;
     2C0  :    0b;
     2C1  :    01;
     2C2  :    00;
     2C3  :    02;
     2C4  :    00;
     2C5  :    20;
     2C6  :    00;
     2C7  :    00;
     2C8  :    01;
     2C9  :    80;
     2CA  :    01;
     2CB  :    00;
     2CC  :    ff;
     2CD  :    00;
     2CE  :    ff;
     2CF  :    00;
     2D0  :    00;
     2D1  :    00;
     2D2  :    00;
     2D3  :    00;
     2D4  :    00;
     2D5  :    00;
     2D6  :    69;
     2D7  :    73;
     2D8  :    50;
     2D9  :    39;
     2DA  :    4f;
     2DB  :    41;
     2DC  :    0a;
     2DD  :    6c;
     2DE  :    61;
     2DF  :    67;
     2E0  :    2e;
     2E1  :    20;
     2E2  :    6c;
     2E3  :    61;
     2E4  :    67;
     2E5  :    4e;
     2E6  :    00;
     2E7  :    20;
     2E8  :    2e;
     2E9  :    6c;
     2EA  :    43;
     2EB  :    57;
     2EC  :    64;
     2ED  :    68;
     2EE  :    69;
     2EF  :    4d;
     2F0  :    37;
     2F1  :    2e;
     2F2  :    00;
  END;