WIDTH=8;
DEPTH=2048;

ADDRESS_RADIX=HEX;
DATA_RADIX=HEX;

CONTENT BEGIN 
   0  :    00;
     1  :    87;
     2  :    00;
     3  :    07;
     4  :    00;
     5  :    07;
     6  :    00;
     7  :    09;
     8  :    00;
     9  :    18;
     A  :    ff;
     B  :    00;
     C  :    00;
     D  :    00;
     E  :    01;
     F  :    00;
     10  :    00;
     11  :    00;
     12  :    00;
     13  :    00;
     14  :    00;
     15  :    00;
     16  :    00;
     17  :    01;
     18  :    00;
     19  :    00;
     1A  :    00;
     1B  :    00;
     1C  :    00;
     1D  :    ff;
     1E  :    ff;
     1F  :    00;
     20  :    ff;
     21  :    ff;
     22  :    ff;
     23  :    ff;
     24  :    ff;
     25  :    00;
     26  :    00;
     27  :    00;
     28  :    11;
     29  :    10;
     2A  :    10;
     2B  :    10;
     2C  :    18;
     2D  :    ff;
     2E  :    ff;
     2F  :    00;
     30  :    00;
     31  :    20;
     32  :    00;
     33  :    ff;
     34  :    ff;
     35  :    ff;
     36  :    ff;
     37  :    ff;
     38  :    00;
     39  :    00;
     3A  :    00;
     3B  :    00;
     3C  :    80;
     3D  :    00;
     3E  :    00;
     3F  :    00;
     40  :    00;
     41  :    00;
     42  :    80;
     43  :    80;
     44  :    00;
     45  :    00;
     46  :    00;
     47  :    00;
     48  :    ff;
     49  :    80;
     4A  :    00;
     4B  :    00;
     4C  :    00;
     4D  :    80;
     4E  :    00;
     4F  :    00;
     50  :    00;
     51  :    00;
     52  :    00;
     53  :    80;
     54  :    80;
     55  :    00;
     56  :    00;
     57  :    00;
     58  :    00;
     59  :    ff;
     5A  :    80;
     5B  :    00;
     5C  :    00;
     5D  :    00;
     5E  :    00;
     5F  :    80;
     60  :    00;
     61  :    00;
     62  :    00;
     63  :    00;
     64  :    00;
     65  :    00;
     66  :    00;
     67  :    00;
     68  :    00;
     69  :    00;
     6A  :    ff;
     6B  :    18;
     6C  :    00;
     6D  :    00;
     6E  :    80;
     6F  :    00;
     70  :    00;
     71  :    00;
     72  :    10;
     73  :    00;
     74  :    00;
     75  :    ff;
     76  :    00;
     77  :    00;
     78  :    00;
     79  :    80;
     7A  :    00;
     7B  :    00;
     7C  :    00;
     7D  :    00;
     7E  :    00;
     7F  :    00;
     80  :    00;
     81  :    00;
     82  :    00;
     83  :    00;
     84  :    00;
     85  :    00;
     86  :    ff;
     87  :    00;
     88  :    00;
     89  :    00;
     8A  :    00;
     8B  :    00;
     8C  :    00;
     8D  :    ff;
     8E  :    00;
     8F  :    00;
     90  :    00;
     91  :    00;
     92  :    00;
     93  :    00;
     94  :    00;
     95  :    00;
     96  :    00;
     97  :    00;
     98  :    00;
     99  :    a1;
     9A  :    ff;
     9B  :    00;
     9C  :    ff;
     9D  :    00;
     9E  :    00;
     9F  :    00;
     A0  :    00;
     A1  :    03;
     A2  :    00;
     A3  :    00;
     A4  :    00;
     A5  :    03;
     A6  :    00;
     A7  :    00;
     A8  :    00;
     A9  :    03;
     AA  :    00;
     AB  :    00;
     AC  :    00;
     AD  :    00;
     AE  :    00;
     AF  :    ff;
     B0  :    00;
     B1  :    00;
     B2  :    00;
     B3  :    80;
     B4  :    00;
     B5  :    00;
     B6  :    80;
     B7  :    00;
     B8  :    00;
     B9  :    ff;
     BA  :    10;
     BB  :    00;
     BC  :    00;
     BD  :    ff;
     BE  :    10;
     BF  :    00;
     C0  :    00;
     C1  :    ff;
     C2  :    10;
     C3  :    00;
     C4  :    00;
     C5  :    03;
     C6  :    00;
     C7  :    00;
     C8  :    00;
     C9  :    00;
     CA  :    00;
     CB  :    00;
     CC  :    00;
     CD  :    00;
     CE  :    ff;
     CF  :    00;
     D0  :    00;
     D1  :    00;
     D2  :    80;
     D3  :    00;
     D4  :    00;
     D5  :    80;
     D6  :    00;
     D7  :    00;
     D8  :    00;
     D9  :    00;
     DA  :    00;
     DB  :    00;
     DC  :    ff;
     DD  :    10;
     DE  :    00;
     DF  :    00;
     E0  :    ff;
     E1  :    10;
     E2  :    00;
     E3  :    00;
     E4  :    03;
     E5  :    00;
     E6  :    00;
     E7  :    00;
     E8  :    00;
     E9  :    00;
     EA  :    00;
     EB  :    00;
     EC  :    00;
     ED  :    ff;
     EE  :    00;
     EF  :    00;
     F0  :    00;
     F1  :    00;
     F2  :    00;
     F3  :    00;
     F4  :    00;
     F5  :    00;
     F6  :    00;
     F7  :    00;
     F8  :    00;
     F9  :    00;
     FA  :    00;
     FB  :    ff;
     FC  :    00;
     FD  :    00;
     FE  :    80;
     FF  :    00;
     100  :    00;
     101  :    00;
     102  :    00;
     103  :    00;
     104  :    20;
     105  :    00;
     106  :    00;
     107  :    00;
     108  :    00;
     109  :    ff;
     10A  :    00;
     10B  :    00;
     10C  :    80;
     10D  :    00;
     10E  :    00;
     10F  :    00;
     110  :    00;
     111  :    00;
     112  :    00;
     113  :    20;
     114  :    00;
     115  :    00;
     116  :    00;
     117  :    00;
     118  :    ff;
     119  :    00;
     11A  :    00;
     11B  :    00;
     11C  :    00;
     11D  :    00;
     11E  :    ff;
     11F  :    00;
     120  :    00;
     121  :    00;
     122  :    80;
     123  :    00;
     124  :    00;
     125  :    07;
     126  :    00;
     127  :    80;
     128  :    00;
     129  :    00;
     12A  :    00;
     12B  :    00;
     12C  :    00;
     12D  :    ff;
     12E  :    00;
     12F  :    00;
     130  :    00;
     131  :    80;
     132  :    00;
     133  :    00;
     134  :    00;
     135  :    00;
     136  :    00;
     137  :    00;
     138  :    ff;
     139  :    00;
     13A  :    ff;
     13B  :    00;
     13C  :    80;
     13D  :    00;
     13E  :    00;
     13F  :    00;
     140  :    01;
     141  :    00;
     142  :    80;
     143  :    00;
     144  :    01;
     145  :    00;
     146  :    00;
     147  :    00;
     148  :    00;
     149  :    00;
     14A  :    80;
     14B  :    00;
     14C  :    00;
     14D  :    fe;
     14E  :    10;
     14F  :    00;
     150  :    00;
     151  :    ff;
     152  :    10;
     153  :    00;
     154  :    00;
     155  :    80;
     156  :    00;
     157  :    00;
     158  :    00;
     159  :    00;
     15A  :    00;
     15B  :    00;
     15C  :    00;
     15D  :    00;
     15E  :    00;
     15F  :    00;
     160  :    ff;
     161  :    10;
     162  :    00;
     163  :    00;
     164  :    00;
     165  :    10;
     166  :    00;
     167  :    00;
     168  :    80;
     169  :    00;
     16A  :    00;
     16B  :    00;
     16C  :    00;
     16D  :    80;
     16E  :    00;
     16F  :    00;
     170  :    00;
     171  :    00;
     172  :    00;
     173  :    00;
     174  :    80;
     175  :    00;
     176  :    00;
     177  :    00;
     178  :    10;
     179  :    00;
     17A  :    00;
     17B  :    00;
     17C  :    80;
     17D  :    00;
     17E  :    00;
     17F  :    ff;
     180  :    18;
     181  :    00;
     182  :    00;
     183  :    80;
     184  :    00;
     185  :    00;
     186  :    00;
     187  :    00;
     188  :    00;
     189  :    00;
     18A  :    80;
     18B  :    00;
     18C  :    00;
     18D  :    ff;
     18E  :    18;
     18F  :    00;
     190  :    00;
     191  :    80;
     192  :    00;
     193  :    00;
     194  :    00;
     195  :    00;
     196  :    00;
     197  :    00;
     198  :    00;
     199  :    80;
     19A  :    00;
     19B  :    00;
     19C  :    00;
     19D  :    ff;
     19E  :    00;
     19F  :    00;
     1A0  :    00;
     1A1  :    88;
     1A2  :    20;
     1A3  :    00;
     1A4  :    01;
     1A5  :    00;
     1A6  :    00;
     1A7  :    00;
     1A8  :    00;
     1A9  :    01;
     1AA  :    00;
     1AB  :    00;
     1AC  :    00;
     1AD  :    01;
     1AE  :    00;
     1AF  :    00;
     1B0  :    00;
     1B1  :    00;
     1B2  :    00;
     1B3  :    01;
     1B4  :    00;
     1B5  :    ff;
     1B6  :    20;
     1B7  :    01;
     1B8  :    00;
     1B9  :    ff;
     1BA  :    20;
     1BB  :    00;
     1BC  :    00;
     1BD  :    00;
     1BE  :    00;
     1BF  :    00;
     1C0  :    00;
     1C1  :    00;
     1C2  :    00;
     1C3  :    69;
     1C4  :    73;
     1C5  :    50;
     1C6  :    39;
     1C7  :    4f;
     1C8  :    41;
     1C9  :    0a;
     1CA  :    00;
  END;