WIDTH=8;
DEPTH=2048;

ADDRESS_RADIX=HEX;
DATA_RADIX=HEX;

CONTENT BEGIN 
   0  :    00;
     1  :    00;
     2  :    00;
     3  :    00;
     4  :    00;
     5  :    00;
     6  :    00;
     7  :    00;
     8  :    00;
     9  :    00;
     A  :    00;
     B  :    00;
     C  :    00;
     D  :    00;
     E  :    00;
     F  :    00;
     10  :    00;
     11  :    00;
     12  :    00;
     13  :    00;
     14  :    00;
     15  :    00;
     16  :    00;
     17  :    00;
     18  :    00;
     19  :    00;
     1A  :    00;
     1B  :    00;
     1C  :    00;
     1D  :    00;
     1E  :    00;
     1F  :    00;
     20  :    00;
     21  :    00;
     22  :    00;
     23  :    00;
     24  :    00;
     25  :    00;
     26  :    00;
     27  :    00;
     28  :    00;
     29  :    00;
     2A  :    00;
     2B  :    00;
     2C  :    00;
     2D  :    00;
     2E  :    00;
     2F  :    00;
     30  :    00;
     31  :    00;
     32  :    00;
     33  :    00;
     34  :    00;
     35  :    00;
     36  :    00;
     37  :    00;
     38  :    00;
     39  :    00;
     3A  :    00;
     3B  :    00;
     3C  :    00;
     3D  :    00;
     3E  :    00;
     3F  :    00;
     40  :    00;
     41  :    00;
     42  :    00;
     43  :    00;
     44  :    00;
     45  :    00;
     46  :    00;
     47  :    00;
     48  :    00;
     49  :    00;
     4A  :    00;
     4B  :    00;
     4C  :    00;
     4D  :    00;
     4E  :    00;
     4F  :    00;
     50  :    00;
     51  :    00;
     52  :    00;
     53  :    00;
     54  :    00;
     55  :    00;
     56  :    00;
     57  :    00;
     58  :    00;
     59  :    00;
     5A  :    00;
     5B  :    00;
     5C  :    00;
     5D  :    00;
     5E  :    00;
     5F  :    00;
     60  :    00;
     61  :    00;
     62  :    00;
     63  :    00;
     64  :    00;
     65  :    00;
     66  :    00;
     67  :    00;
     68  :    00;
     69  :    00;
     6A  :    00;
     6B  :    00;
     6C  :    00;
     6D  :    00;
     6E  :    00;
     6F  :    00;
     70  :    00;
     71  :    00;
     72  :    00;
     73  :    00;
     74  :    00;
     75  :    00;
     76  :    00;
     77  :    00;
     78  :    00;
     79  :    00;
     7A  :    00;
     7B  :    00;
     7C  :    00;
     7D  :    00;
     7E  :    00;
     7F  :    00;
     80  :    00;
     81  :    00;
     82  :    00;
     83  :    00;
     84  :    00;
     85  :    00;
     86  :    00;
     87  :    00;
     88  :    00;
     89  :    00;
     8A  :    00;
     8B  :    00;
     8C  :    00;
     8D  :    00;
     8E  :    00;
     8F  :    00;
     90  :    00;
     91  :    00;
     92  :    00;
     93  :    00;
     94  :    00;
     95  :    00;
     96  :    00;
     97  :    00;
     98  :    00;
     99  :    00;
     9A  :    00;
     9B  :    00;
     9C  :    00;
     9D  :    00;
     9E  :    00;
     9F  :    00;
     A0  :    00;
     A1  :    00;
     A2  :    00;
     A3  :    00;
     A4  :    00;
     A5  :    00;
     A6  :    00;
     A7  :    00;
     A8  :    00;
     A9  :    00;
     AA  :    00;
     AB  :    00;
     AC  :    00;
     AD  :    00;
     AE  :    00;
     AF  :    00;
     B0  :    00;
     B1  :    00;
     B2  :    00;
     B3  :    00;
     B4  :    00;
     B5  :    00;
     B6  :    00;
     B7  :    00;
     B8  :    00;
     B9  :    00;
     BA  :    00;
     BB  :    00;
     BC  :    00;
     BD  :    00;
     BE  :    00;
     BF  :    00;
     C0  :    00;
     C1  :    00;
     C2  :    00;
     C3  :    00;
     C4  :    00;
     C5  :    00;
     C6  :    00;
     C7  :    00;
     C8  :    00;
     C9  :    00;
     CA  :    00;
     CB  :    00;
     CC  :    00;
     CD  :    00;
     CE  :    00;
     CF  :    00;
     D0  :    00;
     D1  :    00;
     D2  :    00;
     D3  :    00;
     D4  :    00;
     D5  :    00;
     D6  :    00;
     D7  :    00;
     D8  :    00;
     D9  :    00;
     DA  :    00;
     DB  :    00;
     DC  :    00;
     DD  :    00;
     DE  :    00;
     DF  :    00;
     E0  :    00;
     E1  :    00;
     E2  :    00;
     E3  :    00;
     E4  :    00;
     E5  :    00;
     E6  :    00;
     E7  :    00;
     E8  :    00;
     E9  :    00;
     EA  :    00;
     EB  :    00;
     EC  :    00;
     ED  :    00;
     EE  :    00;
     EF  :    00;
     F0  :    00;
     F1  :    00;
     F2  :    00;
     F3  :    00;
     F4  :    00;
     F5  :    00;
     F6  :    00;
     F7  :    00;
     F8  :    00;
     F9  :    00;
     FA  :    00;
     FB  :    00;
     FC  :    00;
     FD  :    00;
     FE  :    00;
     FF  :    00;
     100  :    00;
     101  :    00;
     102  :    00;
     103  :    00;
     104  :    00;
     105  :    00;
     106  :    00;
     107  :    00;
     108  :    00;
     109  :    00;
     10A  :    00;
     10B  :    00;
     10C  :    00;
     10D  :    00;
     10E  :    00;
     10F  :    00;
     110  :    00;
     111  :    00;
     112  :    00;
     113  :    00;
     114  :    00;
     115  :    00;
     116  :    00;
     117  :    00;
     118  :    00;
     119  :    00;
     11A  :    00;
     11B  :    00;
     11C  :    00;
     11D  :    00;
     11E  :    00;
     11F  :    00;
     120  :    00;
     121  :    00;
     122  :    00;
     123  :    00;
     124  :    00;
     125  :    00;
     126  :    00;
     127  :    00;
     128  :    00;
     129  :    00;
     12A  :    00;
     12B  :    00;
     12C  :    00;
     12D  :    00;
     12E  :    00;
     12F  :    00;
     130  :    00;
     131  :    00;
     132  :    00;
     133  :    00;
     134  :    00;
     135  :    00;
     136  :    00;
     137  :    00;
     138  :    00;
     139  :    00;
     13A  :    00;
     13B  :    00;
     13C  :    00;
     13D  :    00;
     13E  :    00;
     13F  :    00;
     140  :    00;
     141  :    00;
     142  :    00;
     143  :    00;
     144  :    00;
     145  :    00;
     146  :    00;
     147  :    00;
     148  :    00;
     149  :    00;
     14A  :    00;
     14B  :    00;
     14C  :    00;
     14D  :    00;
     14E  :    00;
     14F  :    00;
     150  :    00;
     151  :    00;
     152  :    00;
     153  :    00;
     154  :    00;
     155  :    00;
     156  :    00;
     157  :    00;
     158  :    00;
     159  :    00;
     15A  :    00;
     15B  :    00;
     15C  :    00;
     15D  :    00;
     15E  :    00;
     15F  :    00;
     160  :    00;
     161  :    00;
     162  :    00;
     163  :    00;
     164  :    00;
     165  :    00;
     166  :    00;
     167  :    00;
     168  :    00;
     169  :    00;
     16A  :    00;
     16B  :    00;
     16C  :    00;
     16D  :    00;
     16E  :    00;
     16F  :    00;
     170  :    00;
     171  :    00;
     172  :    00;
     173  :    00;
     174  :    00;
     175  :    00;
     176  :    00;
     177  :    00;
     178  :    00;
     179  :    00;
     17A  :    00;
     17B  :    00;
     17C  :    00;
     17D  :    00;
     17E  :    00;
     17F  :    00;
     180  :    00;
     181  :    00;
     182  :    00;
     183  :    00;
     184  :    00;
     185  :    00;
     186  :    00;
     187  :    00;
     188  :    00;
     189  :    00;
     18A  :    00;
     18B  :    00;
     18C  :    00;
     18D  :    00;
     18E  :    00;
     18F  :    00;
     190  :    00;
     191  :    00;
     192  :    00;
     193  :    00;
     194  :    00;
     195  :    00;
     196  :    00;
     197  :    00;
     198  :    00;
     199  :    00;
     19A  :    00;
     19B  :    00;
     19C  :    00;
     19D  :    00;
     19E  :    00;
     19F  :    00;
     1A0  :    00;
     1A1  :    00;
     1A2  :    00;
     1A3  :    00;
     1A4  :    00;
     1A5  :    00;
     1A6  :    00;
     1A7  :    00;
     1A8  :    00;
     1A9  :    00;
     1AA  :    00;
     1AB  :    00;
     1AC  :    00;
     1AD  :    00;
     1AE  :    00;
     1AF  :    00;
     1B0  :    00;
     1B1  :    00;
     1B2  :    00;
     1B3  :    00;
     1B4  :    00;
     1B5  :    00;
     1B6  :    00;
     1B7  :    00;
     1B8  :    00;
     1B9  :    00;
     1BA  :    00;
     1BB  :    00;
     1BC  :    00;
     1BD  :    00;
     1BE  :    00;
     1BF  :    00;
     1C0  :    00;
     1C1  :    00;
     1C2  :    00;
     1C3  :    00;
     1C4  :    00;
     1C5  :    00;
     1C6  :    00;
     1C7  :    00;
     1C8  :    00;
     1C9  :    00;
     1CA  :    00;
     1CB  :    00;
     1CC  :    00;
     1CD  :    00;
     1CE  :    00;
     1CF  :    00;
     1D0  :    00;
     1D1  :    00;
     1D2  :    00;
     1D3  :    00;
     1D4  :    00;
     1D5  :    00;
     1D6  :    00;
     1D7  :    00;
     1D8  :    00;
     1D9  :    00;
     1DA  :    00;
     1DB  :    00;
     1DC  :    00;
     1DD  :    00;
     1DE  :    00;
     1DF  :    00;
     1E0  :    00;
     1E1  :    00;
     1E2  :    00;
     1E3  :    00;
     1E4  :    00;
     1E5  :    00;
     1E6  :    00;
     1E7  :    00;
     1E8  :    00;
     1E9  :    00;
     1EA  :    00;
     1EB  :    00;
     1EC  :    00;
     1ED  :    00;
     1EE  :    00;
     1EF  :    00;
     1F0  :    00;
     1F1  :    00;
     1F2  :    00;
     1F3  :    00;
     1F4  :    00;
     1F5  :    00;
     1F6  :    00;
     1F7  :    00;
     1F8  :    00;
     1F9  :    00;
     1FA  :    00;
     1FB  :    00;
     1FC  :    00;
     1FD  :    00;
     1FE  :    00;
     1FF  :    00;
     200  :    00;
     201  :    00;
     202  :    00;
     203  :    00;
     204  :    00;
     205  :    00;
     206  :    00;
     207  :    00;
     208  :    00;
     209  :    00;
     20A  :    00;
     20B  :    00;
     20C  :    00;
     20D  :    00;
     20E  :    00;
     20F  :    00;
     210  :    00;
     211  :    00;
     212  :    00;
     213  :    00;
     214  :    00;
     215  :    00;
     216  :    00;
     217  :    00;
     218  :    00;
     219  :    00;
     21A  :    00;
     21B  :    00;
     21C  :    00;
     21D  :    00;
     21E  :    00;
     21F  :    00;
     220  :    00;
     221  :    00;
     222  :    00;
     223  :    00;
     224  :    00;
     225  :    00;
     226  :    00;
     227  :    00;
     228  :    00;
     229  :    00;
     22A  :    00;
     22B  :    00;
     22C  :    00;
     22D  :    00;
     22E  :    00;
     22F  :    00;
     230  :    00;
     231  :    00;
     232  :    00;
     233  :    00;
     234  :    00;
     235  :    00;
     236  :    00;
     237  :    00;
     238  :    00;
     239  :    00;
     23A  :    00;
     23B  :    00;
     23C  :    00;
     23D  :    00;
     23E  :    00;
     23F  :    00;
     240  :    00;
     241  :    00;
     242  :    00;
     243  :    00;
     244  :    00;
     245  :    00;
     246  :    00;
     247  :    00;
     248  :    00;
     249  :    00;
     24A  :    00;
     24B  :    00;
     24C  :    00;
     24D  :    00;
     24E  :    00;
     24F  :    00;
     250  :    00;
     251  :    00;
     252  :    00;
     253  :    00;
     254  :    00;
     255  :    00;
     256  :    00;
     257  :    00;
     258  :    00;
     259  :    00;
     25A  :    00;
     25B  :    00;
     25C  :    00;
     25D  :    00;
     25E  :    00;
     25F  :    00;
     260  :    00;
     261  :    00;
     262  :    00;
     263  :    00;
     264  :    00;
     265  :    00;
     266  :    00;
     267  :    00;
     268  :    00;
     269  :    00;
     26A  :    00;
     26B  :    00;
     26C  :    00;
     26D  :    00;
     26E  :    00;
     26F  :    00;
     270  :    00;
     271  :    00;
     272  :    00;
     273  :    00;
     274  :    00;
     275  :    00;
     276  :    00;
     277  :    00;
     278  :    00;
     279  :    00;
     27A  :    00;
     27B  :    00;
     27C  :    00;
     27D  :    00;
     27E  :    00;
     27F  :    00;
     280  :    00;
     281  :    00;
     282  :    00;
     283  :    00;
     284  :    00;
     285  :    00;
     286  :    00;
     287  :    00;
     288  :    00;
     289  :    00;
     28A  :    00;
     28B  :    00;
     28C  :    00;
     28D  :    00;
     28E  :    00;
     28F  :    00;
     290  :    00;
     291  :    00;
     292  :    00;
     293  :    00;
     294  :    00;
     295  :    00;
     296  :    00;
     297  :    00;
     298  :    00;
     299  :    00;
     29A  :    00;
     29B  :    00;
     29C  :    00;
     29D  :    00;
     29E  :    00;
     29F  :    00;
     2A0  :    00;
     2A1  :    00;
     2A2  :    00;
     2A3  :    00;
     2A4  :    00;
     2A5  :    00;
     2A6  :    00;
     2A7  :    00;
     2A8  :    00;
     2A9  :    00;
     2AA  :    00;
     2AB  :    00;
     2AC  :    00;
     2AD  :    00;
     2AE  :    00;
     2AF  :    00;
     2B0  :    00;
     2B1  :    00;
     2B2  :    00;
     2B3  :    00;
     2B4  :    00;
     2B5  :    00;
     2B6  :    00;
     2B7  :    00;
     2B8  :    00;
     2B9  :    00;
     2BA  :    00;
     2BB  :    00;
     2BC  :    00;
     2BD  :    00;
     2BE  :    00;
     2BF  :    00;
     2C0  :    00;
     2C1  :    00;
     2C2  :    00;
     2C3  :    00;
     2C4  :    00;
     2C5  :    00;
     2C6  :    00;
     2C7  :    00;
     2C8  :    00;
     2C9  :    00;
     2CA  :    00;
     2CB  :    00;
     2CC  :    00;
     2CD  :    00;
     2CE  :    00;
     2CF  :    00;
     2D0  :    00;
     2D1  :    00;
     2D2  :    00;
     2D3  :    00;
     2D4  :    00;
     2D5  :    00;
     2D6  :    00;
     2D7  :    00;
     2D8  :    00;
     2D9  :    00;
     2DA  :    00;
     2DB  :    00;
     2DC  :    00;
     2DD  :    00;
     2DE  :    00;
     2DF  :    00;
     2E0  :    00;
     2E1  :    00;
     2E2  :    00;
     2E3  :    00;
     2E4  :    00;
     2E5  :    00;
     2E6  :    00;
     2E7  :    00;
     2E8  :    00;
     2E9  :    00;
     2EA  :    00;
     2EB  :    00;
     2EC  :    00;
     2ED  :    00;
     2EE  :    00;
     2EF  :    00;
     2F0  :    00;
     2F1  :    00;
     2F2  :    00;
     2F3  :    00;
     2F4  :    00;
     2F5  :    00;
     2F6  :    00;
     2F7  :    00;
     2F8  :    00;
     2F9  :    00;
     2FA  :    00;
     2FB  :    00;
     2FC  :    00;
     2FD  :    00;
     2FE  :    00;
     2FF  :    00;
     300  :    00;
     301  :    00;
     302  :    00;
     303  :    00;
     304  :    00;
     305  :    00;
     306  :    00;
     307  :    00;
     308  :    00;
     309  :    00;
     30A  :    00;
     30B  :    00;
     30C  :    00;
     30D  :    00;
     30E  :    00;
     30F  :    00;
     310  :    00;
     311  :    00;
     312  :    00;
     313  :    00;
     314  :    00;
     315  :    00;
     316  :    00;
     317  :    00;
     318  :    00;
     319  :    00;
     31A  :    00;
     31B  :    00;
     31C  :    00;
     31D  :    00;
     31E  :    00;
     31F  :    00;
     320  :    00;
     321  :    00;
     322  :    00;
     323  :    00;
     324  :    00;
     325  :    00;
     326  :    00;
     327  :    00;
     328  :    00;
     329  :    00;
     32A  :    00;
     32B  :    00;
     32C  :    00;
     32D  :    00;
     32E  :    00;
     32F  :    00;
     330  :    00;
     331  :    00;
     332  :    00;
     333  :    00;
     334  :    00;
     335  :    00;
     336  :    00;
     337  :    00;
     338  :    00;
     339  :    00;
     33A  :    00;
     33B  :    00;
     33C  :    00;
     33D  :    00;
     33E  :    00;
     33F  :    00;
     340  :    00;
     341  :    00;
     342  :    00;
     343  :    00;
     344  :    00;
     345  :    00;
     346  :    00;
     347  :    00;
     348  :    00;
     349  :    00;
     34A  :    00;
     34B  :    00;
     34C  :    00;
     34D  :    00;
     34E  :    00;
     34F  :    00;
     350  :    00;
     351  :    00;
     352  :    00;
     353  :    00;
     354  :    00;
     355  :    00;
     356  :    00;
     357  :    00;
     358  :    00;
     359  :    00;
     35A  :    00;
     35B  :    00;
     35C  :    00;
     35D  :    00;
     35E  :    00;
     35F  :    00;
     360  :    00;
     361  :    00;
     362  :    00;
     363  :    00;
     364  :    00;
     365  :    00;
     366  :    00;
     367  :    00;
     368  :    00;
     369  :    00;
     36A  :    00;
     36B  :    00;
     36C  :    00;
     36D  :    00;
     36E  :    00;
     36F  :    00;
     370  :    00;
     371  :    00;
     372  :    00;
     373  :    00;
     374  :    00;
     375  :    00;
     376  :    00;
     377  :    00;
     378  :    00;
     379  :    00;
     37A  :    00;
     37B  :    00;
     37C  :    00;
     37D  :    00;
     37E  :    00;
     37F  :    00;
     380  :    00;
     381  :    00;
     382  :    00;
     383  :    00;
     384  :    00;
     385  :    00;
     386  :    00;
     387  :    00;
     388  :    00;
     389  :    00;
     38A  :    00;
     38B  :    00;
     38C  :    00;
     38D  :    00;
     38E  :    00;
     38F  :    00;
     390  :    00;
     391  :    00;
     392  :    00;
     393  :    00;
     394  :    00;
     395  :    00;
     396  :    00;
     397  :    00;
     398  :    00;
     399  :    00;
     39A  :    00;
     39B  :    00;
     39C  :    00;
     39D  :    00;
     39E  :    00;
     39F  :    00;
     3A0  :    00;
     3A1  :    00;
     3A2  :    00;
     3A3  :    00;
     3A4  :    00;
     3A5  :    00;
     3A6  :    00;
     3A7  :    00;
     3A8  :    00;
     3A9  :    00;
     3AA  :    00;
     3AB  :    00;
     3AC  :    00;
     3AD  :    00;
     3AE  :    00;
     3AF  :    00;
     3B0  :    00;
     3B1  :    00;
     3B2  :    00;
     3B3  :    00;
     3B4  :    00;
     3B5  :    00;
     3B6  :    00;
     3B7  :    00;
     3B8  :    00;
     3B9  :    00;
     3BA  :    00;
     3BB  :    00;
     3BC  :    00;
     3BD  :    00;
     3BE  :    00;
     3BF  :    00;
     3C0  :    00;
     3C1  :    00;
     3C2  :    00;
     3C3  :    00;
     3C4  :    00;
     3C5  :    00;
     3C6  :    00;
     3C7  :    00;
     3C8  :    00;
     3C9  :    00;
     3CA  :    00;
     3CB  :    00;
     3CC  :    00;
     3CD  :    00;
     3CE  :    00;
     3CF  :    00;
     3D0  :    00;
     3D1  :    00;
     3D2  :    00;
     3D3  :    00;
     3D4  :    00;
     3D5  :    00;
     3D6  :    00;
     3D7  :    00;
     3D8  :    00;
     3D9  :    00;
     3DA  :    00;
     3DB  :    00;
     3DC  :    00;
     3DD  :    00;
     3DE  :    00;
     3DF  :    00;
     3E0  :    00;
     3E1  :    00;
     3E2  :    00;
     3E3  :    00;
     3E4  :    00;
     3E5  :    00;
     3E6  :    00;
     3E7  :    00;
     3E8  :    00;
     3E9  :    00;
     3EA  :    00;
     3EB  :    00;
     3EC  :    00;
     3ED  :    00;
     3EE  :    00;
     3EF  :    00;
     3F0  :    00;
     3F1  :    00;
     3F2  :    00;
     3F3  :    00;
     3F4  :    00;
     3F5  :    00;
     3F6  :    00;
     3F7  :    00;
     3F8  :    00;
     3F9  :    00;
     3FA  :    00;
     3FB  :    00;
     3FC  :    00;
     3FD  :    00;
     3FE  :    00;
     3FF  :    00;
     400  :    00;
     401  :    00;
     402  :    00;
     403  :    00;
     404  :    00;
     405  :    00;
     406  :    00;
     407  :    00;
     408  :    00;
     409  :    00;
     40A  :    00;
     40B  :    00;
     40C  :    00;
     40D  :    00;
     40E  :    00;
     40F  :    00;
     410  :    00;
     411  :    00;
     412  :    00;
     413  :    00;
     414  :    00;
     415  :    00;
     416  :    00;
     417  :    00;
     418  :    00;
     419  :    00;
     41A  :    00;
     41B  :    00;
     41C  :    00;
     41D  :    00;
     41E  :    00;
     41F  :    00;
     420  :    00;
     421  :    00;
     422  :    00;
     423  :    00;
     424  :    00;
     425  :    00;
     426  :    00;
     427  :    00;
     428  :    00;
     429  :    00;
     42A  :    00;
     42B  :    00;
     42C  :    00;
     42D  :    00;
     42E  :    00;
     42F  :    00;
     430  :    00;
     431  :    00;
     432  :    00;
     433  :    00;
     434  :    00;
     435  :    00;
     436  :    00;
     437  :    00;
     438  :    00;
     439  :    00;
     43A  :    00;
     43B  :    00;
     43C  :    00;
     43D  :    00;
     43E  :    00;
     43F  :    00;
     440  :    00;
     441  :    00;
     442  :    00;
     443  :    00;
     444  :    00;
     445  :    00;
     446  :    00;
     447  :    00;
     448  :    00;
     449  :    00;
     44A  :    00;
     44B  :    00;
     44C  :    00;
     44D  :    00;
     44E  :    00;
     44F  :    00;
     450  :    00;
     451  :    00;
     452  :    00;
     453  :    00;
     454  :    00;
     455  :    00;
     456  :    00;
     457  :    00;
     458  :    00;
     459  :    00;
     45A  :    00;
     45B  :    00;
     45C  :    00;
     45D  :    00;
     45E  :    00;
     45F  :    00;
     460  :    00;
     461  :    00;
     462  :    00;
     463  :    00;
     464  :    00;
     465  :    00;
     466  :    00;
     467  :    00;
     468  :    00;
     469  :    00;
     46A  :    00;
     46B  :    00;
     46C  :    00;
     46D  :    00;
     46E  :    00;
     46F  :    00;
     470  :    00;
     471  :    00;
     472  :    00;
     473  :    00;
     474  :    00;
     475  :    00;
     476  :    00;
     477  :    00;
     478  :    00;
     479  :    00;
     47A  :    00;
     47B  :    00;
     47C  :    00;
     47D  :    00;
     47E  :    00;
     47F  :    00;
     480  :    00;
     481  :    00;
     482  :    00;
     483  :    00;
     484  :    00;
     485  :    00;
     486  :    00;
     487  :    00;
     488  :    00;
     489  :    00;
     48A  :    00;
     48B  :    00;
     48C  :    00;
     48D  :    00;
     48E  :    00;
     48F  :    00;
     490  :    00;
     491  :    00;
     492  :    00;
     493  :    00;
     494  :    00;
     495  :    00;
     496  :    00;
     497  :    00;
     498  :    00;
     499  :    00;
     49A  :    00;
     49B  :    00;
     49C  :    00;
     49D  :    00;
     49E  :    00;
     49F  :    00;
     4A0  :    00;
     4A1  :    00;
     4A2  :    00;
     4A3  :    00;
     4A4  :    00;
     4A5  :    00;
     4A6  :    00;
     4A7  :    00;
     4A8  :    00;
     4A9  :    00;
     4AA  :    00;
     4AB  :    00;
     4AC  :    00;
     4AD  :    00;
     4AE  :    00;
     4AF  :    00;
     4B0  :    00;
     4B1  :    00;
     4B2  :    00;
     4B3  :    00;
     4B4  :    00;
     4B5  :    00;
     4B6  :    00;
     4B7  :    00;
     4B8  :    00;
     4B9  :    00;
     4BA  :    00;
     4BB  :    00;
     4BC  :    00;
     4BD  :    00;
     4BE  :    00;
     4BF  :    00;
     4C0  :    00;
     4C1  :    00;
     4C2  :    00;
     4C3  :    00;
     4C4  :    00;
     4C5  :    00;
     4C6  :    00;
     4C7  :    00;
     4C8  :    00;
     4C9  :    00;
     4CA  :    00;
     4CB  :    00;
     4CC  :    00;
     4CD  :    00;
     4CE  :    00;
     4CF  :    00;
     4D0  :    00;
     4D1  :    00;
     4D2  :    00;
     4D3  :    00;
     4D4  :    00;
     4D5  :    00;
     4D6  :    00;
     4D7  :    00;
     4D8  :    00;
     4D9  :    00;
     4DA  :    00;
     4DB  :    00;
     4DC  :    00;
     4DD  :    00;
     4DE  :    00;
     4DF  :    00;
     4E0  :    00;
     4E1  :    00;
     4E2  :    00;
     4E3  :    00;
     4E4  :    00;
     4E5  :    00;
     4E6  :    00;
     4E7  :    00;
     4E8  :    00;
     4E9  :    00;
     4EA  :    00;
     4EB  :    00;
     4EC  :    00;
     4ED  :    00;
     4EE  :    00;
     4EF  :    00;
     4F0  :    00;
     4F1  :    00;
     4F2  :    00;
     4F3  :    00;
     4F4  :    00;
     4F5  :    00;
     4F6  :    00;
     4F7  :    00;
     4F8  :    00;
     4F9  :    00;
     4FA  :    00;
     4FB  :    00;
     4FC  :    00;
     4FD  :    00;
     4FE  :    00;
     4FF  :    00;
     500  :    00;
     501  :    00;
     502  :    00;
     503  :    00;
     504  :    00;
     505  :    00;
     506  :    00;
     507  :    00;
     508  :    00;
     509  :    00;
     50A  :    00;
     50B  :    00;
     50C  :    00;
     50D  :    00;
     50E  :    00;
     50F  :    00;
     510  :    00;
     511  :    00;
     512  :    00;
     513  :    00;
     514  :    00;
     515  :    00;
     516  :    00;
     517  :    00;
     518  :    00;
     519  :    00;
     51A  :    00;
     51B  :    00;
     51C  :    00;
     51D  :    00;
     51E  :    00;
     51F  :    00;
     520  :    00;
     521  :    00;
     522  :    00;
     523  :    00;
     524  :    00;
     525  :    00;
     526  :    00;
     527  :    00;
     528  :    00;
     529  :    00;
     52A  :    00;
     52B  :    00;
     52C  :    00;
     52D  :    00;
     52E  :    00;
     52F  :    00;
     530  :    00;
     531  :    00;
     532  :    00;
     533  :    00;
     534  :    00;
     535  :    00;
     536  :    00;
     537  :    00;
     538  :    00;
     539  :    00;
     53A  :    00;
     53B  :    00;
     53C  :    00;
     53D  :    00;
     53E  :    00;
     53F  :    00;
     540  :    1c;
     541  :    9c;
     542  :    04;
     543  :    84;
     544  :    05;
     545  :    a5;
     546  :    1d;
     547  :    bd;
     548  :    80;
     549  :    85;
     54A  :    60;
     54B  :    84;
     54C  :    00;
     54D  :    00;
     54E  :    00;
     54F  :    00;
     550  :    00;
     551  :    00;
     552  :    00;
     553  :    00;
     554  :    00;
     555  :    00;
     556  :    00;
     557  :    00;
     558  :    00;
     559  :    80;
     55A  :    00;
     55B  :    00;
     55C  :    80;
     55D  :    83;
     55E  :    04;
     55F  :    02;
     560  :    42;
     561  :    44;
     562  :    42;
     563  :    63;
     564  :    64;
     565  :    42;
     566  :    e0;
     567  :    00;
     568  :    04;
     569  :    44;
     56A  :    02;
     56B  :    44;
     56C  :    02;
     56D  :    63;
     56E  :    02;
     56F  :    62;
     570  :    00;
     571  :    40;
     572  :    02;
     573  :    42;
     574  :    44;
     575  :    42;
     576  :    63;
     577  :    64;
     578  :    42;
     579  :    e0;
     57A  :    00;
     57B  :    84;
     57C  :    02;
     57D  :    42;
     57E  :    42;
     57F  :    00;
     580  :    42;
     581  :    40;
     582  :    02;
     583  :    03;
     584  :    63;
     585  :    62;
     586  :    00;
     587  :    42;
     588  :    40;
     589  :    02;
     58A  :    42;
     58B  :    e0;
     58C  :    44;
     58D  :    02;
     58E  :    42;
     58F  :    42;
     590  :    00;
     591  :    42;
     592  :    40;
     593  :    02;
     594  :    03;
     595  :    63;
     596  :    62;
     597  :    00;
     598  :    42;
     599  :    40;
     59A  :    02;
     59B  :    42;
     59C  :    42;
     59D  :    00;
     59E  :    42;
     59F  :    05;
     5A0  :    a5;
     5A1  :    a3;
     5A2  :    00;
     5A3  :    63;
     5A4  :    a3;
     5A5  :    a3;
     5A6  :    00;
     5A7  :    63;
     5A8  :    a3;
     5A9  :    a3;
     5AA  :    04;
     5AB  :    64;
     5AC  :    e0;
     5AD  :    a3;
     5AE  :    02;
     5AF  :    42;
     5B0  :    42;
     5B1  :    00;
     5B2  :    02;
     5B3  :    e0;
     5B4  :    42;
     5B5  :    bd;
     5B6  :    bf;
     5B7  :    b1;
     5B8  :    b0;
     5B9  :    80;
     5BA  :    11;
     5BB  :    02;
     5BC  :    00;
     5BD  :    40;
     5BE  :    00;
     5BF  :    51;
     5C0  :    00;
     5C1  :    00;
     5C2  :    04;
     5C3  :    04;
     5C4  :    00;
     5C5  :    10;
     5C6  :    00;
     5C7  :    00;
     5C8  :    bf;
     5C9  :    b1;
     5CA  :    b0;
     5CB  :    e0;
     5CC  :    bd;
     5CD  :    bd;
     5CE  :    bf;
     5CF  :    b1;
     5D0  :    b0;
     5D1  :    00;
     5D2  :    04;
     5D3  :    10;
     5D4  :    11;
     5D5  :    00;
     5D6  :    04;
     5D7  :    04;
     5D8  :    00;
     5D9  :    84;
     5DA  :    02;
     5DB  :    50;
     5DC  :    11;
     5DD  :    00;
     5DE  :    00;
     5DF  :    04;
     5E0  :    00;
     5E1  :    04;
     5E2  :    00;
     5E3  :    04;
     5E4  :    00;
     5E5  :    04;
     5E6  :    00;
     5E7  :    04;
     5E8  :    00;
     5E9  :    04;
     5EA  :    bf;
     5EB  :    b1;
     5EC  :    b0;
     5ED  :    e0;
     5EE  :    bd;
     5EF  :    bd;
     5F0  :    bf;
     5F1  :    b0;
     5F2  :    84;
     5F3  :    02;
     5F4  :    42;
     5F5  :    44;
     5F6  :    10;
     5F7  :    10;
     5F8  :    02;
     5F9  :    03;
     5FA  :    43;
     5FB  :    02;
     5FC  :    02;
     5FD  :    03;
     5FE  :    43;
     5FF  :    02;
     600  :    02;
     601  :    03;
     602  :    43;
     603  :    02;
     604  :    00;
     605  :    04;
     606  :    02;
     607  :    00;
     608  :    42;
     609  :    02;
     60A  :    bf;
     60B  :    b0;
     60C  :    e0;
     60D  :    bd;
     60E  :    bd;
     60F  :    bf;
     610  :    b0;
     611  :    84;
     612  :    02;
     613  :    42;
     614  :    44;
     615  :    10;
     616  :    10;
     617  :    02;
     618  :    00;
     619  :    42;
     61A  :    02;
     61B  :    02;
     61C  :    03;
     61D  :    43;
     61E  :    02;
     61F  :    02;
     620  :    03;
     621  :    43;
     622  :    02;
     623  :    00;
     624  :    04;
     625  :    02;
     626  :    00;
     627  :    42;
     628  :    02;
     629  :    bf;
     62A  :    b0;
     62B  :    e0;
     62C  :    bd;
     62D  :    bd;
     62E  :    bf;
     62F  :    a5;
     630  :    a0;
     631  :    82;
     632  :    00;
     633  :    42;
     634  :    42;
     635  :    00;
     636  :    44;
     637  :    bf;
     638  :    00;
     639  :    e0;
     63A  :    bd;
     63B  :    bd;
     63C  :    bf;
     63D  :    b0;
     63E  :    c0;
     63F  :    a5;
     640  :    10;
     641  :    00;
     642  :    84;
     643  :    00;
     644  :    00;
     645  :    bf;
     646  :    b0;
     647  :    e0;
     648  :    bd;
     649  :    bd;
     64A  :    bf;
     64B  :    b0;
     64C  :    c0;
     64D  :    84;
     64E  :    00;
     64F  :    a5;
     650  :    02;
     651  :    00;
     652  :    40;
     653  :    40;
     654  :    00;
     655  :    10;
     656  :    04;
     657  :    00;
     658  :    80;
     659  :    00;
     65A  :    bf;
     65B  :    b0;
     65C  :    e0;
     65D  :    bd;
     65E  :    bd;
     65F  :    bf;
     660  :    b1;
     661  :    b0;
     662  :    00;
     663  :    04;
     664  :    00;
     665  :    84;
     666  :    03;
     667  :    02;
     668  :    42;
     669  :    43;
     66A  :    11;
     66B  :    00;
     66C  :    00;
     66D  :    51;
     66E  :    00;
     66F  :    00;
     670  :    04;
     671  :    11;
     672  :    31;
     673  :    00;
     674  :    00;
     675  :    02;
     676  :    42;
     677  :    10;
     678  :    00;
     679  :    22;
     67A  :    bd;
     67B  :    bf;
     67C  :    03;
     67D  :    63;
     67E  :    62;
     67F  :    00;
     680  :    42;
     681  :    62;
     682  :    02;
     683  :    42;
     684  :    00;
     685  :    44;
     686  :    bf;
     687  :    00;
     688  :    e0;
     689  :    bd;
     68A  :    04;
     68B  :    84;
     68C  :    82;
     68D  :    03;
     68E  :    43;
     68F  :    82;
     690  :    82;
     691  :    03;
     692  :    43;
     693  :    e0;
     694  :    82;
     695  :    03;
     696  :    63;
     697  :    62;
     698  :    00;
     699  :    42;
     69A  :    62;
     69B  :    62;
     69C  :    00;
     69D  :    42;
     69E  :    62;
     69F  :    62;
     6A0  :    04;
     6A1  :    44;
     6A2  :    62;
     6A3  :    62;
     6A4  :    00;
     6A5  :    44;
     6A6  :    e0;
     6A7  :    62;
     6A8  :    02;
     6A9  :    42;
     6AA  :    42;
     6AB  :    e0;
     6AC  :    00;
     6AD  :    02;
     6AE  :    42;
     6AF  :    42;
     6B0  :    00;
     6B1  :    42;
     6B2  :    e0;
     6B3  :    42;
     6B4  :    02;
     6B5  :    42;
     6B6  :    42;
     6B7  :    00;
     6B8  :    02;
     6B9  :    42;
     6BA  :    e0;
     6BB  :    42;
     6BC  :    02;
     6BD  :    42;
     6BE  :    43;
     6BF  :    04;
     6C0  :    64;
     6C1  :    e0;
     6C2  :    43;
     6C3  :    03;
     6C4  :    63;
     6C5  :    62;
     6C6  :    00;
     6C7  :    42;
     6C8  :    e0;
     6C9  :    62;
     6CA  :    02;
     6CB  :    42;
     6CC  :    43;
     6CD  :    04;
     6CE  :    64;
     6CF  :    e0;
     6D0  :    43;
     6D1  :    03;
     6D2  :    63;
     6D3  :    62;
     6D4  :    00;
     6D5  :    42;
     6D6  :    e0;
     6D7  :    62;
     6D8  :    84;
     6D9  :    02;
     6DA  :    42;
     6DB  :    e0;
     6DC  :    44;
     6DD  :    bd;
     6DE  :    bf;
     6DF  :    04;
     6E0  :    00;
     6E1  :    84;
     6E2  :    00;
     6E3  :    00;
     6E4  :    bf;
     6E5  :    00;
     6E6  :    e0;
     6E7  :    bd;
     6E8  :    e0;
     6E9  :    00;
     6EA  :    00;
     6EB  :    00;
     6EC  :    00;
     6ED  :    00;
     6EE  :    00;
     6EF  :    00;
     6F0  :    68;
     6F1  :    69;
     6F2  :    49;
     6F3  :    38;
     6F4  :    4f;
     6F5  :    4f;
     6F6  :    52;
     6F7  :    45;
     6F8  :    20;
     6F9  :    20;
     6FA  :    4c;
     6FB  :    54;
     6FC  :    20;
     6FD  :    4d;
     6FE  :    37;
     6FF  :    52;
     700  :    69;
     701  :    49;
     702  :    20;
     703  :    64;
     704  :    6f;
     705  :    56;
     706  :    67;
     707  :    2e;
     708  :    00;
     709  :    00;
     70A  :    00;
  END;